test/TEST190523/v_h13.csv
Bus, BasekV, Node1, Magnitude1, Angle1, pu1, Node2, Magnitude2, Angle2, pu2, Node3, Magnitude3, Angle3, pu3
"SOURCEBUS", 69, 1,    41807.9,    0.0,    1.0495, 2,    41832.7, -120.0,    1.0501, 3,    41799.6,  119.9,    1.0493
"BUSMVMAI1", 12.8, 1,    7750.39,  -30.1,    1.0488, 2,    7757.07, -150.0,    1.0497, 3,    7745.81,   89.7,    1.0481
"BUSMVMAI136", 12.505, 1,    7750.42,  -30.1,    1.0735, 2,    7757.08, -150.0,    1.0744, 3,    7745.73,   89.7,    1.0728
"BUSMVMAI3", 12.505, 1,    7770.67,  -30.5,    1.0763, 2,    7761.94, -149.6,    1.0751, 3,    7682.39,   89.4,     1.064
"BUSMVMAI2", 12.505, 1,    7770.72,  -30.5,    1.0763, 2,    7761.95, -149.6,    1.0751, 3,    7682.21,   89.4,     1.064
"BUSMVMAI4", 12.505, 1,     7771.3,  -30.5,    1.0764, 2,     7762.1, -149.6,    1.0751, 3,    7680.43,   89.4,    1.0638
"BUSMVMAI46", 12.505, 1,    7770.64,  -30.5,    1.0763, 2,    7761.94, -149.6,    1.0751, 3,    7682.46,   89.4,    1.0641
"BUSMVMAI5", 12.505, 1,    7771.58,  -30.5,    1.0764, 2,    7761.98, -149.6,    1.0751, 3,    7678.51,   89.4,    1.0635
"BUSMVMAI862", 12.505, 1,    7771.29,  -30.5,    1.0764, 0, 0, 0, 0, 0, 0, 0, 0
"BUSMVMAI6", 12.505, 1,    7771.63,  -30.5,    1.0764, 2,    7761.96, -149.6,    1.0751, 3,    7678.17,   89.4,    1.0635
"BUSMVMAI859", 12.505, 3,    7678.49,   89.4,    1.0635, 0, 0, 0, 0, 0, 0, 0, 0
"BUSMVMAI860", 12.505, 3,    7678.51,   89.4,    1.0635, 0, 0, 0, 0, 0, 0, 0, 0
"BUSMVMAI7", 12.505, 1,    7771.63,  -30.5,    1.0764, 2,    7761.94, -149.6,    1.0751, 3,    7677.05,   89.4,    1.0633
"BUSMVMAI8", 12.505, 1,    7772.81,  -30.5,    1.0766, 2,    7761.52, -149.6,     1.075, 3,    7675.56,   89.3,    1.0631
"BUSMVMAI9", 12.505, 1,    7771.63,  -30.5,    1.0764, 2,    7761.94, -149.6,    1.0751, 3,    7677.05,   89.4,    1.0633
"BUSMVMAI10", 12.505, 1,    7771.16,  -30.5,    1.0763, 2,    7762.02, -149.6,    1.0751, 3,    7676.76,   89.4,    1.0633
"BUSMVMAI56", 12.505, 1,    7771.39,  -30.5,    1.0764, 2,    7761.98, -149.6,    1.0751, 3,    7676.91,   89.4,    1.0633
"BUSMVMAI861", 12.505, 3,    7678.42,   89.4,    1.0635, 0, 0, 0, 0, 0, 0, 0, 0
"BUSMVMAI12", 12.505, 1,    7773.77,  -30.5,    1.0767, 2,    7761.18, -149.5,     1.075, 3,    7674.34,   89.3,    1.0629
"BUSMVMAI51", 12.505, 1,    7772.81,  -30.5,    1.0766, 2,    7761.52, -149.6,     1.075, 3,    7675.56,   89.3,    1.0631
"BUSMVMAI2171", 12.505, 1,    7772.81,  -30.5,    1.0766, 0, 0, 0, 0, 0, 0, 0, 0
"BUSMVMAI863", 12.505, 3,    7678.38,   89.4,    1.0635, 0, 0, 0, 0, 0, 0, 0, 0
"BUSMVMAI2165", 12.505, 3,    7677.05,   89.4,    1.0633, 0, 0, 0, 0, 0, 0, 0, 0
"BUSMVMAI694", 12.505, 1,    7771.63,  -30.5,    1.0764, 2,    7761.94, -149.6,    1.0751, 3,    7677.05,   89.4,    1.0633
"BUSMVMAI122", 12.505, 1,    7771.13,  -30.5,    1.0763, 2,    7762.02, -149.6,    1.0751, 3,    7676.75,   89.4,    1.0633
"BUSMVMAI11", 12.505, 1,    7773.77,  -30.5,    1.0767, 2,    7761.18, -149.5,     1.075, 3,    7674.35,   89.3,    1.0629
"BUSMVMAI13", 12.505, 1,    7773.76,  -30.5,    1.0767, 2,    7761.16, -149.5,     1.075, 3,    7674.37,   89.3,    1.0629
"BUSMVMAI18", 12.505, 1,    7774.15,  -30.5,    1.0768, 2,    7761.06, -149.5,    1.0749, 3,    7673.87,   89.3,    1.0629
"BUSMVMAI14", 12.505, 1,    7773.74,  -30.5,    1.0767, 2,    7761.13, -149.5,    1.0749, 3,    7674.42,   89.3,    1.0629
"BUSMVMAI15", 12.505, 1,    7773.71,  -30.5,    1.0767, 2,    7761.09, -149.5,    1.0749, 3,    7674.47,   89.3,    1.0629
"BUSMVMAI16", 12.505, 1,    7773.69,  -30.5,    1.0767, 2,    7761.11, -149.5,    1.0749, 3,     7674.5,   89.3,    1.0629
"BUSMVMAI2166", 12.505, 2,    7761.09, -149.5,    1.0749, 0, 0, 0, 0, 0, 0, 0, 0
"BUSMVMAI2172", 12.505, 1,    7771.28,  -30.5,    1.0764, 0, 0, 0, 0, 0, 0, 0, 0
"BUSMVMAI864", 12.505, 3,    7678.34,   89.4,    1.0635, 0, 0, 0, 0, 0, 0, 0, 0
"BUSMVMAI865", 12.505, 3,    7678.28,   89.4,    1.0635, 0, 0, 0, 0, 0, 0, 0, 0
"BUSMVMAI17", 12.505, 1,    7773.69,  -30.5,    1.0767, 2,    7761.11, -149.5,    1.0749, 3,     7674.5,   89.3,    1.0629
"BUSMVMAI695", 12.505, 1,    7773.69,  -30.5,    1.0767, 2,    7761.11, -149.5,    1.0749, 3,    7674.51,   89.3,     1.063
"BUSMVMAI866", 12.505, 3,    7678.28,   89.4,    1.0635, 0, 0, 0, 0, 0, 0, 0, 0
"BUSMVMAI2176", 12.505, 3,    7678.28,   89.4,    1.0635, 0, 0, 0, 0, 0, 0, 0, 0
"BUSMVMAI2177", 12.505, 3,    7678.27,   89.4,    1.0635, 0, 0, 0, 0, 0, 0, 0, 0
"BUSMVMAI2178", 12.505, 3,    7678.24,   89.4,    1.0635, 0, 0, 0, 0, 0, 0, 0, 0
"BUSMVMAI19", 12.505, 1,    7774.83,  -30.5,    1.0768, 2,    7760.84, -149.5,    1.0749, 3,    7673.03,   89.3,    1.0627
"BUSMVMAI20", 12.505, 1,     7775.8,  -30.5,     1.077, 2,    7760.52, -149.5,    1.0749, 3,    7671.85,   89.3,    1.0626
"BUSMVMAI53", 12.505, 1,    7774.83,  -30.5,    1.0768, 2,    7760.84, -149.5,    1.0749, 3,    7673.03,   89.3,    1.0627
"BUSMVMAI21", 12.505, 1,    7776.82,  -30.5,    1.0771, 2,    7760.19, -149.5,    1.0748, 3,     7670.6,   89.3,    1.0624
"BUSMVMAI22", 12.505, 1,    7778.01,  -30.5,    1.0773, 2,     7759.8, -149.5,    1.0748, 3,    7669.15,   89.3,    1.0622
"BUSMVMAI23", 12.505, 1,    7776.82,  -30.5,    1.0771, 2,    7760.19, -149.5,    1.0748, 3,     7670.6,   89.3,    1.0624
"BUSMVMAI25", 12.505, 1,    7779.28,  -30.5,    1.0775, 2,    7759.35, -149.5,    1.0747, 3,    7667.63,   89.3,     1.062
"BUSMVMAI52", 12.505, 1,    7778.01,  -30.5,    1.0773, 2,     7759.8, -149.5,    1.0748, 3,    7669.15,   89.3,    1.0622
"BUSMVMAI54", 12.505, 1,    7778.01,  -30.5,    1.0773, 2,     7759.8, -149.5,    1.0748, 3,    7669.15,   89.3,    1.0622
"BUSMVMAI55", 12.505, 1,    7778.01,  -30.5,    1.0773, 2,     7759.8, -149.5,    1.0748, 3,    7669.15,   89.3,    1.0622
"BUSMVMAI696", 12.505, 1,    7776.82,  -30.5,    1.0771, 2,    7760.19, -149.5,    1.0748, 3,    7670.59,   89.3,    1.0624
"BUSMVMAI24", 12.505, 1,     7779.4,  -30.5,    1.0775, 2,    7759.31, -149.5,    1.0747, 3,    7667.49,   89.3,     1.062
"BUSMVMAI26", 12.505, 1,    7780.67,  -30.5,    1.0777, 2,    7758.87, -149.5,    1.0746, 3,    7665.97,   89.3,    1.0618
"BUSMVMAI49", 12.505, 1,    7779.28,  -30.5,    1.0775, 2,    7759.35, -149.5,    1.0747, 3,    7667.63,   89.3,     1.062
"BUSMVMAI50", 12.505, 1,    7779.28,  -30.5,    1.0775, 2,    7759.35, -149.5,    1.0747, 3,    7667.63,   89.3,     1.062
"BUSMVMAI27", 12.505, 1,    7780.65,  -30.5,    1.0777, 2,    7758.88, -149.5,    1.0746, 3,    7665.97,   89.3,    1.0618
"BUSMVMAI28", 12.505, 1,    7781.65,  -30.5,    1.0778, 2,    7758.52, -149.5,    1.0746, 3,    7664.83,   89.3,    1.0616
"BUSMVMAI29", 12.505, 1,    7780.64,  -30.5,    1.0777, 2,    7758.88, -149.5,    1.0746, 3,    7665.96,   89.3,    1.0618
"BUSMVMAI31", 12.505, 1,    7782.78,  -30.5,    1.0779, 2,    7758.11, -149.5,    1.0745, 3,     7663.5,   89.3,    1.0614
"BUSMVMAI30", 12.505, 1,    7780.61,  -30.5,    1.0776, 2,     7758.9, -149.5,    1.0746, 3,    7665.95,   89.3,    1.0618
"BUSMVMAI34", 12.505, 1,    7780.59,  -30.5,    1.0776, 2,    7758.91, -149.5,    1.0746, 3,    7665.94,   89.3,    1.0618
"BUSMVMAI867", 12.505, 1,    7782.74,  -30.5,    1.0779, 0, 0, 0, 0, 0, 0, 0, 0
"BUSMVMAI43", 12.505, 1,    7782.81,  -30.5,     1.078, 2,     7758.1, -149.5,    1.0745, 3,    7663.47,   89.3,    1.0614
"BUSMVMAI871", 12.505, 2,    7758.11, -149.5,    1.0745, 0, 0, 0, 0, 0, 0, 0, 0
"BUSMVMAI33", 12.505, 1,    7783.14,  -30.5,     1.078, 2,    7757.98, -149.5,    1.0745, 3,    7663.09,   89.3,    1.0614
"BUSMVMAI32", 12.505, 1,    7784.12,  -30.5,    1.0781, 2,    7757.62, -149.4,    1.0745, 3,    7661.98,   89.2,    1.0612
"BUSMVMAI37", 12.505, 1,    7785.43,  -30.5,    1.0783, 2,    7757.14, -149.4,    1.0744, 3,    7660.49,   89.2,     1.061
"BUSMVMAI44", 12.505, 1,    7782.83,  -30.5,     1.078, 2,    7758.09, -149.5,    1.0745, 3,    7663.44,   89.3,    1.0614
"BUSMVMAI35", 12.505, 1,    7780.59,  -30.5,    1.0776, 2,    7758.91, -149.5,    1.0746, 3,    7665.93,   89.3,    1.0618
"BUSMVMAI36", 12.505, 1,     7780.6,  -30.5,    1.0776, 2,    7758.91, -149.5,    1.0746, 3,    7665.93,   89.3,    1.0618
"BUSMVMAI869", 12.505, 1,    7782.74,  -30.5,    1.0779, 0, 0, 0, 0, 0, 0, 0, 0
"BUSMVMAI38", 12.505, 1,    7786.48,  -30.5,    1.0785, 2,    7756.76, -149.4,    1.0743, 3,    7659.31,   89.2,    1.0608
"BUSMVMAI2181", 12.505, 1,    7785.43,  -30.5,    1.0783, 0, 0, 0, 0, 0, 0, 0, 0
"BUSMVMAI868", 12.505, 1,    7782.67,  -30.5,    1.0779, 0, 0, 0, 0, 0, 0, 0, 0
"BUSMVMAI870", 12.505, 1,     7782.6,  -30.5,    1.0779, 0, 0, 0, 0, 0, 0, 0, 0
"BUSMVMAI39", 12.505, 1,    7786.49,  -30.5,    1.0785, 2,    7756.75, -149.4,    1.0743, 3,    7659.27,   89.2,    1.0608
"BUSMVMAI40", 12.505, 1,    7787.49,  -30.5,    1.0786, 2,     7756.4, -149.4,    1.0743, 3,    7658.17,   89.2,    1.0607
"BUSMVMAI697", 12.505, 1,    7786.52,  -30.5,    1.0785, 2,    7756.76, -149.4,    1.0743, 3,    7659.17,   89.2,    1.0608
"BUSMVMAI41", 12.505, 1,    7788.67,  -30.5,    1.0788, 2,       7756, -149.4,    1.0742, 3,    7656.83,   89.2,    1.0605
"BUSMVMAI42", 12.505, 1,    7788.71,  -30.5,    1.0788, 2,    7755.97, -149.4,    1.0742, 3,    7656.79,   89.2,    1.0605
"BUSMVMAI48", 12.505, 1,     7789.6,  -30.5,    1.0789, 2,     7755.7, -149.4,    1.0742, 3,    7655.77,   89.2,    1.0604
"BUSMVMAI303", 12.505, 1,    7789.13,  -30.5,    1.0788, 2,    7755.85, -149.4,    1.0742, 3,     7656.3,   89.2,    1.0604
"BUSMVMAI45", 12.505, 1,    7788.72,  -30.5,    1.0788, 2,    7755.96, -149.4,    1.0742, 3,    7656.76,   89.2,    1.0605
"BUSMVMAI701", 12.505, 1,    7788.73,  -30.5,    1.0788, 2,    7755.97, -149.4,    1.0742, 3,    7656.73,   89.2,    1.0605
"BUSMVMAI47", 12.505, 1,    7770.39,  -30.5,    1.0762, 2,    7761.87, -149.6,    1.0751, 3,    7683.25,   89.4,    1.0642
"BUSMVMAI179", 12.505, 1,    7770.51,  -30.5,    1.0762, 2,     7761.9, -149.6,    1.0751, 3,    7682.86,   89.4,    1.0641
"BUSMVMAI160", 12.505, 1,    7769.78,  -30.4,    1.0761, 2,    7761.72, -149.6,     1.075, 3,    7685.14,   89.4,    1.0644
"BUSMVMAI1103", 12.505, 1,    7789.54,  -30.5,    1.0789, 0, 0, 0, 0, 0, 0, 0, 0
"BUSMVMAI259", 12.505, 1,     7790.1,  -30.5,     1.079, 2,     7755.5, -149.4,    1.0742, 3,    7655.28,   89.2,    1.0603
"BUSMVMAI304", 12.505, 1,     7789.6,  -30.5,    1.0789, 2,     7755.7, -149.4,    1.0742, 3,    7655.77,   89.2,    1.0604
"BUSMVMAI702", 12.505, 1,    7779.28,  -30.5,    1.0775, 2,    7759.35, -149.5,    1.0747, 3,    7667.63,   89.3,     1.062
"BUSMVMAI58", 12.505, 1,    7770.83,  -30.5,    1.0763, 2,    7762.07, -149.6,    1.0751, 3,    7676.56,   89.4,    1.0632
"BUSMVMAI57", 12.505, 1,    7769.72,  -30.5,    1.0761, 2,    7762.24, -149.6,    1.0751, 3,    7675.89,   89.4,    1.0631
"BUSMVMAI60", 12.505, 1,    7769.26,  -30.5,    1.0761, 2,    7762.32, -149.6,    1.0751, 3,     7675.6,   89.4,    1.0631
"BUSMVMAI703", 12.505, 1,    7769.72,  -30.5,    1.0761, 2,    7762.25, -149.6,    1.0751, 3,    7675.88,   89.4,    1.0631
"BUSMVMAI123", 12.505, 1,    7771.11,  -30.5,    1.0763, 2,    7762.02, -149.6,    1.0751, 3,    7676.73,   89.4,    1.0633
"BUSMVMAI59", 12.505, 1,     7768.6,  -30.5,     1.076, 2,    7762.44, -149.6,    1.0751, 3,    7675.31,   89.4,    1.0631
"BUSMVMAI61", 12.505, 1,    7767.52,  -30.5,    1.0758, 2,    7762.63, -149.6,    1.0752, 3,    7674.83,   89.4,     1.063
"BUSMVMAI63", 12.505, 1,    7769.28,  -30.5,    1.0761, 2,     7762.3, -149.6,    1.0751, 3,    7675.55,   89.4,    1.0631
"BUSMVMAI874", 12.505, 3,     7675.6,   89.4,    1.0631, 0, 0, 0, 0, 0, 0, 0, 0
"BUSMVMAI62", 12.505, 1,    7766.53,  -30.5,    1.0757, 2,    7762.72, -149.6,    1.0752, 3,    7674.38,   89.4,    1.0629
"BUSMVMAI64", 12.505, 1,    7765.45,  -30.5,    1.0755, 2,    7762.86, -149.6,    1.0752, 3,     7674.1,   89.4,    1.0629
"BUSMVMAI942", 12.505, 3,    7674.37,   89.4,    1.0629, 0, 0, 0, 0, 0, 0, 0, 0
"BUSMVMAI873", 12.505, 3,    7674.37,   89.4,    1.0629, 0, 0, 0, 0, 0, 0, 0, 0
"BUSMVMAI872", 12.505, 3,    7674.11,   89.4,    1.0629, 0, 0, 0, 0, 0, 0, 0, 0
"BUSMVMAI880", 12.505, 3,    7674.11,   89.4,    1.0629, 0, 0, 0, 0, 0, 0, 0, 0
"BUSMVMAI945", 12.505, 3,    7675.55,   89.4,    1.0631, 0, 0, 0, 0, 0, 0, 0, 0
"BUSMVMAI65", 12.505, 1,    7764.32,  -30.5,    1.0754, 2,    7762.97, -149.6,    1.0752, 3,    7673.79,   89.4,    1.0629
"BUSMVMAI66", 12.505, 1,    7763.18,  -30.5,    1.0752, 2,    7763.08, -149.6,    1.0752, 3,    7673.47,   89.4,    1.0628
"BUSMVMAI67", 12.505, 1,    7761.95,  -30.5,    1.0751, 2,     7763.2, -149.6,    1.0752, 3,    7673.13,   89.4,    1.0628
"BUSMVMAI878", 12.505, 1,    7761.93,  -30.5,    1.0751, 0, 0, 0, 0, 0, 0, 0, 0
"BUSMVMAI68", 12.505, 1,    7761.02,  -30.5,    1.0749, 2,    7763.29, -149.6,    1.0752, 3,    7672.88,   89.4,    1.0627
"BUSMVMAI706", 12.505, 1,    7761.96,  -30.5,    1.0751, 2,     7763.2, -149.6,    1.0752, 3,    7673.12,   89.4,    1.0628
"BUSMVMAI876", 12.505, 3,    7675.54,   89.4,    1.0631, 0, 0, 0, 0, 0, 0, 0, 0
"BUSMVMAI875", 12.505, 3,    7675.36,   89.4,    1.0631, 0, 0, 0, 0, 0, 0, 0, 0
"BUSMVMAI877", 12.505, 3,     7675.3,   89.4,    1.0631, 0, 0, 0, 0, 0, 0, 0, 0
"BUSMVMAI883", 12.505, 3,    7675.14,   89.4,     1.063, 0, 0, 0, 0, 0, 0, 0, 0
"BUSMVMAI884", 12.505, 3,    7675.29,   89.4,    1.0631, 0, 0, 0, 0, 0, 0, 0, 0
"BUSMVMAI886", 12.505, 3,     7675.3,   89.4,    1.0631, 0, 0, 0, 0, 0, 0, 0, 0
"BUSMVMAI885", 12.505, 1,    7761.87,  -30.5,    1.0751, 0, 0, 0, 0, 0, 0, 0, 0
"BUSMVMAI879", 12.505, 3,    7673.75,   89.4,    1.0628, 0, 0, 0, 0, 0, 0, 0, 0
"BUSMVMAI881", 12.505, 3,    7673.75,   89.4,    1.0628, 0, 0, 0, 0, 0, 0, 0, 0
"BUSMVMAI888", 12.505, 3,     7673.7,   89.4,    1.0628, 0, 0, 0, 0, 0, 0, 0, 0
"BUSMVMAI882", 12.505, 3,    7673.75,   89.4,    1.0628, 0, 0, 0, 0, 0, 0, 0, 0
"BUSMVMAI944", 12.505, 3,    7673.75,   89.4,    1.0628, 0, 0, 0, 0, 0, 0, 0, 0
"BUSMVMAI889", 12.505, 3,    7675.01,   89.3,     1.063, 0, 0, 0, 0, 0, 0, 0, 0
"BUSMVMAI2183", 12.505, 3,    7675.28,   89.4,    1.0631, 0, 0, 0, 0, 0, 0, 0, 0
"BUSMVMAI2184", 12.505, 3,    7675.28,   89.4,    1.0631, 0, 0, 0, 0, 0, 0, 0, 0
"BUSMVMAI71", 12.505, 1,    7760.14,  -30.5,    1.0748, 2,    7763.35, -149.6,    1.0753, 3,    7672.64,   89.4,    1.0627
"BUSMVMAI2182", 12.505, 1,    7761.87,  -30.5,    1.0751, 0, 0, 0, 0, 0, 0, 0, 0
"BUSMVMAI2185", 12.505, 1,    7761.88,  -30.5,    1.0751, 0, 0, 0, 0, 0, 0, 0, 0
"BUSMVMAI2186", 12.505, 1,    7761.82,  -30.5,     1.075, 0, 0, 0, 0, 0, 0, 0, 0
"BUSMVMAI887", 12.505, 3,     7675.3,   89.4,    1.0631, 0, 0, 0, 0, 0, 0, 0, 0
"BUSMVMAI892", 12.505, 3,     7675.3,   89.4,    1.0631, 0, 0, 0, 0, 0, 0, 0, 0
"BUSMVMAI897", 12.505, 3,    7673.63,   89.4,    1.0628, 0, 0, 0, 0, 0, 0, 0, 0
"BUSMVMAI890", 12.505, 3,    7674.89,   89.3,     1.063, 0, 0, 0, 0, 0, 0, 0, 0
"BUSMVMAI891", 12.505, 3,    7674.81,   89.3,     1.063, 0, 0, 0, 0, 0, 0, 0, 0
"BUSMVMAI896", 12.505, 3,    7674.78,   89.3,     1.063, 0, 0, 0, 0, 0, 0, 0, 0
"BUSMVMAI893", 12.505, 3,     7675.3,   89.4,    1.0631, 0, 0, 0, 0, 0, 0, 0, 0
"BUSMVMAI894", 12.505, 3,     7675.3,   89.4,    1.0631, 0, 0, 0, 0, 0, 0, 0, 0
"BUSMVMAI895", 12.505, 3,    7675.29,   89.4,    1.0631, 0, 0, 0, 0, 0, 0, 0, 0
"BUSMVMAI898", 12.505, 3,    7675.29,   89.4,    1.0631, 0, 0, 0, 0, 0, 0, 0, 0
"BUSMVMAI70", 12.505, 1,    7761.96,  -30.5,    1.0751, 2,    7763.21, -149.6,    1.0752, 3,    7673.08,   89.4,    1.0628
"BUSMVMAI69", 12.505, 1,    7761.97,  -30.5,    1.0751, 2,    7763.21, -149.6,    1.0752, 3,    7673.08,   89.4,    1.0628
"BUSMVMAI708", 12.505, 1,    7761.96,  -30.5,    1.0751, 2,    7763.21, -149.6,    1.0752, 3,    7673.09,   89.4,    1.0628
"BUSMVMAI72", 12.505, 1,       7759,  -30.5,    1.0747, 2,    7763.42, -149.6,    1.0753, 3,    7672.32,   89.4,    1.0626
"BUSMVMAI73", 12.505, 1,    7757.87,  -30.5,    1.0745, 2,    7763.51, -149.6,    1.0753, 3,    7672.13,   89.4,    1.0626
"BUSMVMAI134", 12.505, 1,       7759,  -30.5,    1.0747, 2,    7763.42, -149.6,    1.0753, 3,    7672.32,   89.4,    1.0626
"BUSMVMAI900", 12.505, 3,    7673.57,   89.4,    1.0628, 0, 0, 0, 0, 0, 0, 0, 0
"BUSMVMAI904", 12.505, 3,    7675.29,   89.4,    1.0631, 0, 0, 0, 0, 0, 0, 0, 0
"BUSMVMAI75", 12.505, 1,    7757.33,  -30.5,    1.0744, 2,    7763.57, -149.6,    1.0753, 3,       7672,   89.4,    1.0626
"BUSMVMAI718", 12.505, 1,    7757.87,  -30.5,    1.0745, 2,    7763.51, -149.6,    1.0753, 3,    7672.13,   89.4,    1.0626
"BUSMVMAI899", 12.505, 3,    7673.57,   89.4,    1.0628, 0, 0, 0, 0, 0, 0, 0, 0
"BUSMVMAI902", 12.505, 3,    7673.54,   89.4,    1.0628, 0, 0, 0, 0, 0, 0, 0, 0
"BUSMVMAI901", 12.505, 3,    7673.52,   89.4,    1.0628, 0, 0, 0, 0, 0, 0, 0, 0
"BUSMVMAI903", 12.505, 3,    7673.48,   89.4,    1.0628, 0, 0, 0, 0, 0, 0, 0, 0
"BUSMVMAI905", 12.505, 3,    7673.43,   89.4,    1.0628, 0, 0, 0, 0, 0, 0, 0, 0
"BUSMVMAI907", 12.505, 3,    7673.47,   89.4,    1.0628, 0, 0, 0, 0, 0, 0, 0, 0
"BUSMVMAI906", 12.505, 3,    7673.43,   89.4,    1.0628, 0, 0, 0, 0, 0, 0, 0, 0
"BUSMVMAI946", 12.505, 3,    7673.43,   89.4,    1.0628, 0, 0, 0, 0, 0, 0, 0, 0
"BUSMVMAI74", 12.505, 1,    7757.33,  -30.5,    1.0744, 2,    7763.57, -149.6,    1.0753, 3,       7672,   89.4,    1.0626
"BUSMVMAI76", 12.505, 1,    7757.22,  -30.5,    1.0744, 2,    7763.64, -149.6,    1.0753, 3,    7671.95,   89.4,    1.0626
"BUSMVMAI77", 12.505, 1,    7757.01,  -30.5,    1.0744, 2,    7763.57, -149.6,    1.0753, 3,    7671.93,   89.4,    1.0626
"BUSMVMAI79", 12.505, 1,    7757.22,  -30.5,    1.0744, 2,    7763.64, -149.6,    1.0753, 3,    7671.95,   89.4,    1.0626
"BUSMVMAI81", 12.505, 1,       7757,  -30.5,    1.0744, 2,    7763.49, -149.6,    1.0753, 3,    7671.96,   89.4,    1.0626
"BUSMVMAI91", 12.505, 1,    7756.21,  -30.6,    1.0743, 2,    7763.62, -149.6,    1.0753, 3,    7671.74,   89.4,    1.0626
"BUSMVMAI78", 12.505, 1,    7757.06,  -30.5,    1.0744, 2,    7763.75, -149.6,    1.0753, 3,    7671.87,   89.4,    1.0626
"BUSMVMAI80", 12.505, 1,     7756.9,  -30.5,    1.0744, 2,    7763.85, -149.6,    1.0753, 3,     7671.8,   89.4,    1.0626
"BUSMVMAI908", 12.505, 1,    7756.78,  -30.6,    1.0743, 0, 0, 0, 0, 0, 0, 0, 0
"BUSMVMAI89", 12.505, 1,    7756.87,  -30.6,    1.0744, 2,    7763.87, -149.6,    1.0753, 3,    7671.76,   89.4,    1.0626
"BUSMVMAI949", 12.505, 3,    7673.47,   89.4,    1.0628, 0, 0, 0, 0, 0, 0, 0, 0
"BUSMVMAI82", 12.505, 1,    7756.99,  -30.5,    1.0744, 2,    7763.43, -149.6,    1.0753, 3,    7671.98,   89.4,    1.0626
"BUSMVMAI83", 12.505, 1,    7757.01,  -30.5,    1.0744, 2,    7763.44, -149.6,    1.0753, 3,    7671.95,   89.4,    1.0626
"BUSMVMAI86", 12.505, 1,    7757.02,  -30.5,    1.0744, 2,    7763.45, -149.6,    1.0753, 3,    7671.92,   89.4,    1.0626
"BUSMVMAI85", 12.505, 1,    7757.87,  -30.5,    1.0745, 2,    7763.47, -149.6,    1.0753, 3,     7672.2,   89.4,    1.0626
"BUSMVMAI84", 12.505, 1,    7757.83,  -30.5,    1.0745, 2,    7763.45, -149.6,    1.0753, 3,    7672.27,   89.4,    1.0626
"BUSMVMAI93", 12.505, 1,     7757.8,  -30.5,    1.0745, 2,    7763.44, -149.6,    1.0753, 3,    7672.31,   89.4,    1.0626
"BUSMVMAI2198", 12.505, 2,    7763.45, -149.6,    1.0753, 0, 0, 0, 0, 0, 0, 0, 0
"BUSMVMAI709", 12.505, 1,    7757.87,  -30.5,    1.0745, 2,    7763.51, -149.6,    1.0753, 3,    7672.14,   89.4,    1.0626
"BUSMVMAI88", 12.505, 1,    7757.04,  -30.5,    1.0744, 2,    7763.46, -149.6,    1.0753, 3,     7671.9,   89.4,    1.0626
"BUSMVMAI87", 12.505, 1,    7757.06,  -30.5,    1.0744, 2,    7763.47, -149.6,    1.0753, 3,    7671.87,   89.4,    1.0626
"BUSMVMAI99", 12.505, 1,    7757.07,  -30.5,    1.0744, 2,    7763.48, -149.6,    1.0753, 3,    7671.86,   89.4,    1.0626
"BUSMVMAI722", 12.505, 1,    7757.06,  -30.5,    1.0744, 2,    7763.47, -149.6,    1.0753, 3,    7671.87,   89.4,    1.0626
"BUSMVMAI909", 12.505, 1,    7756.67,  -30.6,    1.0743, 0, 0, 0, 0, 0, 0, 0, 0
"BUSMVMAI90", 12.505, 1,    7756.87,  -30.6,    1.0744, 2,    7763.86, -149.6,    1.0753, 3,    7671.74,   89.4,    1.0626
"BUSMVMAI102", 12.505, 1,    7756.88,  -30.5,    1.0744, 2,    7763.85, -149.6,    1.0753, 3,    7671.71,   89.4,    1.0626
"BUSMVMAI92", 12.505, 1,    7755.51,  -30.6,    1.0742, 2,    7763.67, -149.6,    1.0753, 3,    7671.57,   89.4,    1.0625
"BUSMVMAI132", 12.505, 1,    7756.21,  -30.6,    1.0743, 2,    7763.62, -149.6,    1.0753, 3,    7671.74,   89.4,    1.0626
"BUSMVMAI98", 12.505, 1,    7755.52,  -30.6,    1.0742, 2,    7763.67, -149.6,    1.0753, 3,    7671.57,   89.4,    1.0625
"BUSMVMAI100", 12.505, 1,    7754.62,  -30.6,     1.074, 2,    7763.79, -149.6,    1.0753, 3,    7671.34,   89.4,    1.0625
"BUSMVMAI723", 12.505, 1,    7755.51,  -30.6,    1.0742, 2,    7763.67, -149.6,    1.0753, 3,    7671.57,   89.4,    1.0625
"BUSMVMAI96", 12.505, 1,    7757.78,  -30.5,    1.0745, 2,    7763.43, -149.6,    1.0753, 3,    7672.35,   89.4,    1.0627
"BUSMVMAI916", 12.505, 1,     7757.8,  -30.5,    1.0745, 0, 0, 0, 0, 0, 0, 0, 0
"BUSMVMAI95", 12.505, 1,    7755.52,  -30.6,    1.0742, 2,    7763.63, -149.6,    1.0753, 3,    7671.57,   89.4,    1.0625
"BUSMVMAI94", 12.505, 1,     7755.5,  -30.6,    1.0742, 2,    7763.59, -149.6,    1.0753, 3,    7671.58,   89.4,    1.0625
"BUSMVMAI112", 12.505, 1,     7755.5,  -30.6,    1.0742, 2,    7763.59, -149.6,    1.0753, 3,    7671.58,   89.4,    1.0625
"BUSMVMAI126", 12.505, 1,    7755.52,  -30.6,    1.0742, 2,    7763.63, -149.6,    1.0753, 3,    7671.57,   89.4,    1.0625
"BUSMVMAI97", 12.505, 1,    7757.75,  -30.5,    1.0745, 2,    7763.42, -149.6,    1.0753, 3,    7672.41,   89.4,    1.0627
"BUSMVMAI711", 12.505, 1,    7757.78,  -30.5,    1.0745, 2,    7763.43, -149.6,    1.0753, 3,    7672.34,   89.4,    1.0627
"BUSMVMAI915", 12.505, 1,    7757.74,  -30.5,    1.0745, 0, 0, 0, 0, 0, 0, 0, 0
...
"BUSLVMAI1", 0.20785, 1,    127.578,   89.4,    1.0632, 2,    127.594,  -90.6,    1.0633, 0, 0, 0, 0
"BUSLVMAI2", 0.20785, 1,    127.932,   89.7,    1.0661, 2,    127.945,  -90.3,    1.0662, 0, 0, 0, 0
"BUSLVMAI3", 0.20785, 1,    127.555,   89.4,     1.063, 2,    127.571,  -90.6,    1.0631, 0, 0, 0, 0
"BUSLVMAI4", 0.20785, 1,    128.899,  -30.7,    1.0742, 2,    128.993,  149.3,    1.0749, 0, 0, 0, 0
"BUSLVMAI5", 0.20785, 1,    128.573, -149.5,    1.0714, 2,    128.615,   30.5,    1.0718, 0, 0, 0, 0
"BUSLVMAI6", 0.20785, 1,    127.372,   89.3,    1.0614, 2,    127.388,  -90.7,    1.0616, 0, 0, 0, 0
"BUSLVMAI7", 0.20785, 1,    127.584,   89.4,    1.0632, 2,    127.598,  -90.6,    1.0633, 0, 0, 0, 0
"BUSLVMAI8", 0.20785, 1,    127.016,   89.2,    1.0585, 2,    127.034,  -90.8,    1.0586, 0, 0, 0, 0
"BUSLVMAI9", 0.20785, 1,    126.969,   89.1,    1.0581, 2,    126.982,  -90.9,    1.0582, 0, 0, 0, 0
"BUSLVMAI10", 0.20785, 1,    127.057,   89.1,    1.0588, 2,     127.07,  -90.9,    1.0589, 0, 0, 0, 0
"BUSLVMAI11", 0.20785, 1,    128.912, -149.6,    1.0743, 2,    128.925,   30.4,    1.0744, 0, 0, 0, 0
"BUSLVMAI12", 0.20785, 1,    128.891, -149.6,    1.0741, 2,    128.907,   30.4,    1.0742, 0, 0, 0, 0
"BUSLVMAI13", 0.20785, 1,    129.086,  -30.5,    1.0757, 2,    129.102,  149.5,    1.0759, 0, 0, 0, 0
"BUSLVMAI14", 0.20785, 1,    129.321,  -30.5,    1.0777, 2,    129.337,  149.5,    1.0778, 0, 0, 0, 0
"BUSLVMAI15", 0.20785, 1,     129.24,  -30.4,     1.077, 2,    129.253,  149.6,    1.0771, 0, 0, 0, 0
"BUSLVMAI16", 0.20785, 1,    127.559,   89.4,     1.063, 2,    127.577,  -90.6,    1.0631, 0, 0, 0, 0
"BUSLVMAI17", 0.20785, 1,    126.069,   88.9,    1.0506, 2,    126.097,  -91.1,    1.0508, 0, 0, 0, 0
"BUSLVMAI18", 0.20785, 1,     127.45,   89.3,    1.0621, 2,    127.465,  -90.7,    1.0622, 0, 0, 0, 0
"BUSLVMAI19", 0.20785, 1,    127.767,   89.5,    1.0647, 2,     127.78,  -90.5,    1.0648, 0, 0, 0, 0
"BUSLVMAI20", 0.20785, 1,    128.625, -149.6,    1.0719, 2,    128.668,   30.4,    1.0722, 0, 0, 0, 0
"BUSLVMAI21", 0.20785, 1,    127.579,   89.4,    1.0632, 2,    127.595,  -90.6,    1.0633, 0, 0, 0, 0
"BUSLVMAI22", 0.20785, 1,    129.062,  -30.6,    1.0755, 2,    129.145,  149.4,    1.0762, 0, 0, 0, 0
"BUSLVMAI23", 0.20785, 1,    127.534,   89.3,    1.0628, 2,    127.549,  -90.7,    1.0629, 0, 0, 0, 0
"BUSLVMAI24", 0.20785, 1,    127.551,   89.3,    1.0629, 2,    127.567,  -90.7,    1.0631, 0, 0, 0, 0
"BUSLVMAI25", 0.20785, 1,    127.514,   89.3,    1.0626, 2,    127.529,  -90.7,    1.0627, 0, 0, 0, 0
"BUSLVMAI26", 0.20785, 1,    128.875, -149.6,     1.074, 2,    128.891,   30.4,    1.0741, 0, 0, 0, 0
"BUSLVMAI27", 0.20785, 1,    128.957, -149.5,    1.0746, 2,    128.973,   30.5,    1.0748, 0, 0, 0, 0
"BUSLVMAI28", 0.20785, 1,     127.45,   89.3,    1.0621, 2,    127.465,  -90.7,    1.0622, 0, 0, 0, 0
"BUSLVMAI29", 0.20785, 1,    126.667,   88.9,    1.0556, 2,    126.682,  -91.1,    1.0557, 0, 0, 0, 0
"BUSLVMAI30", 0.20785, 1,     128.91, -149.4,    1.0743, 2,    128.924,   30.5,    1.0744, 0, 0, 0, 0
"BUSLVMAI31", 0.20785, 1,    127.557,   89.4,     1.063, 2,    127.573,  -90.6,    1.0631, 0, 0, 0, 0
"BUSLVMAI32", 0.20785, 1,    128.824,  -30.5,    1.0735, 2,    128.838,  149.5,    1.0736, 0, 0, 0, 0
"BUSLVMAI33", 0.20785, 1,    127.408,   89.3,    1.0617, 2,    127.421,  -90.7,    1.0618, 0, 0, 0, 0
"BUSLVMAI34", 0.20785, 1,    125.687,   88.9,    1.0474, 2,    125.771,  -91.1,    1.0481, 0, 0, 0, 0
"BUSLVMAI35", 0.20785, 1,    127.505,   89.4,    1.0625, 2,     127.52,  -90.6,    1.0627, 0, 0, 0, 0
"BUSLVMAI36", 0.20785, 1,    127.504,   89.4,    1.0625, 2,    127.518,  -90.6,    1.0626, 0, 0, 0, 0
"BUSLVMAI37", 0.20785, 1,    127.493,   89.3,    1.0624, 2,    127.509,  -90.7,    1.0626, 0, 0, 0, 0
"BUSLVMAI38", 0.20785, 1,    126.969, -150.0,    1.0581, 2,    126.986,   30.0,    1.0582, 0, 0, 0, 0
"BUSLVMAI39", 0.20785, 1,     129.01, -149.5,    1.0751, 2,    129.023,   30.5,    1.0752, 0, 0, 0, 0
"BUSLVMAI40", 0.20785, 1,    127.257,   89.2,    1.0605, 2,    127.302,  -90.8,    1.0608, 0, 0, 0, 0
"BUSLVMAI41", 0.20785, 1,    128.886,  -30.5,     1.074, 2,    128.902,  149.5,    1.0742, 0, 0, 0, 0
"BUSLVMAI42", 0.20785, 1,    128.913,  -30.5,    1.0743, 2,    128.929,  149.4,    1.0744, 0, 0, 0, 0
"BUSLVMAI43", 0.20785, 1,    128.913,  -30.5,    1.0743, 2,    128.929,  149.4,    1.0744, 0, 0, 0, 0
"BUSLVMAI44", 0.20785, 1,    127.395,   89.4,    1.0616, 2,    127.422,  -90.7,    1.0618, 0, 0, 0, 0
"BUSLVMAI45", 0.20785, 1,     127.27,   89.3,    1.0606, 2,    127.284,  -90.7,    1.0607, 0, 0, 0, 0
"BUSLVMAI46", 0.20785, 1,    127.479,   89.4,    1.0623, 2,    127.494,  -90.6,    1.0625, 0, 0, 0, 0
"BUSLVMAI47", 0.20785, 1,    127.508,   89.4,    1.0626, 2,    127.522,  -90.6,    1.0627, 0, 0, 0, 0
"BUSLVMAI48", 0.20785, 1,    127.057,   89.2,    1.0588, 2,    127.079,  -90.8,     1.059, 0, 0, 0, 0
"BUSLVMAI49", 0.20785, 1,    128.899,  -30.5,    1.0742, 2,    128.914,  149.5,    1.0743, 0, 0, 0, 0
"BUSLVMAI50", 0.20785, 1,      127.3, -150.1,    1.0608, 2,    127.363,   29.9,    1.0614, 0, 0, 0, 0
"BUSLVMAI51", 0.20785, 1,    127.963,  -30.9,    1.0664, 2,    127.979,  149.1,    1.0665, 0, 0, 0, 0
"BUSLVMAI52", 0.20785, 1,    127.516,   89.4,    1.0626, 2,    127.529,  -90.6,    1.0627, 0, 0, 0, 0
"BUSLVMAI53", 0.20785, 1,    127.499,   89.4,    1.0625, 2,    127.515,  -90.6,    1.0626, 0, 0, 0, 0
"BUSLVMAI54", 0.20785, 1,    126.958,   89.2,     1.058, 2,    126.974,  -90.8,    1.0581, 0, 0, 0, 0
"BUSLVMAI55", 0.20785, 1,    128.938,  -30.5,    1.0745, 2,    128.953,  149.5,    1.0746, 0, 0, 0, 0
"BUSLVMAI56", 0.20785, 1,    127.683,   89.5,     1.064, 2,    127.697,  -90.5,    1.0641, 0, 0, 0, 0
"BUSLVMAI57", 0.20785, 1,    127.466,   89.4,    1.0622, 2,    127.481,  -90.6,    1.0623, 0, 0, 0, 0
"BUSLVMAI58", 0.20785, 1,    127.514,   89.4,    1.0626, 2,    127.528,  -90.6,    1.0627, 0, 0, 0, 0
"BUSLVMAI59", 0.20785, 1,    128.899,  -30.5,    1.0742, 2,    128.914,  149.5,    1.0743, 0, 0, 0, 0
"BUSLVMAI60", 0.20785, 1,    128.824,  -30.6,    1.0735, 2,    128.838,  149.4,    1.0736, 0, 0, 0, 0
"BUSLVMAI61", 0.20785, 1,    126.938,  -31.4,    1.0578, 2,    126.956,  148.6,     1.058, 0, 0, 0, 0
"BUSLVMAI62", 0.20785, 1,    128.908, -149.6,    1.0742, 2,    128.923,   30.4,    1.0744, 0, 0, 0, 0
"BUSLVMAI63", 0.20785, 1,    128.601,  -30.6,    1.0717, 2,    128.619,  149.4,    1.0718, 0, 0, 0, 0
"BUSLVMAI64", 0.20785, 1,    128.895, -149.6,    1.0741, 2,    128.908,   30.4,    1.0742, 0, 0, 0, 0
"BUSLVMAI65", 0.20785, 1,    128.885,  -30.5,     1.074, 2,    128.899,  149.4,    1.0742, 0, 0, 0, 0
"BUSLVMAI66", 0.20785, 1,    127.504,   89.4,    1.0625, 2,    127.519,  -90.6,    1.0627, 0, 0, 0, 0
"BUSLVMAI67", 0.20785, 1,    128.593,  -30.6,    1.0716, 2,    128.609,  149.4,    1.0717, 0, 0, 0, 0
"BUSLVMAI68", 0.20785, 1,    128.517,  -30.7,     1.071, 2,     128.53,  149.3,    1.0711, 0, 0, 0, 0
"BUSLVMAI69", 0.20785, 1,    127.508,   89.4,    1.0626, 2,    127.521,  -90.6,    1.0627, 0, 0, 0, 0
"BUSLVMAI70", 0.20785, 1,     127.19,   89.2,    1.0599, 2,    127.212,  -90.8,    1.0601, 0, 0, 0, 0
"BUSLVMAI71", 0.20785, 1,    128.854,  -30.5,    1.0738, 2,    128.868,  149.5,    1.0739, 0, 0, 0, 0
"BUSLVMAI72", 0.20785, 1,    128.835,  -30.6,    1.0736, 2,    128.848,  149.4,    1.0737, 0, 0, 0, 0
"BUSLVMAI73", 0.20785, 1,    128.974,  -30.5,    1.0748, 2,    128.987,  149.5,    1.0749, 0, 0, 0, 0
"BUSLVMAI74", 0.20785, 1,    128.898,  -30.5,    1.0741, 2,    128.913,  149.5,    1.0743, 0, 0, 0, 0
"BUSLVMAI75", 0.20785, 1,    128.916, -149.6,    1.0743, 2,    128.931,   30.4,    1.0744, 0, 0, 0, 0
"BUSLVMAI76", 0.20785, 1,    127.505,   89.4,    1.0625, 2,    127.518,  -90.6,    1.0626, 0, 0, 0, 0
"BUSLVMAI77", 0.20785, 1,    128.132,  -30.8,    1.0678, 2,    128.147,  149.2,    1.0679, 0, 0, 0, 0
"BUSLVMAI78", 0.20785, 1,    128.987,  -30.5,    1.0749, 2,    129.001,  149.5,     1.075, 0, 0, 0, 0
"BUSLVMAI79", 0.20785, 1,    127.472,   89.4,    1.0623, 2,    127.486,  -90.6,    1.0624, 0, 0, 0, 0
"BUSLVMAI80", 0.20785, 1,    126.329,   88.8,    1.0527, 2,     126.35,  -91.2,    1.0529, 0, 0, 0, 0
"BUSLVMAI81", 0.20785, 1,    127.504,   89.4,    1.0625, 2,    127.518,  -90.6,    1.0626, 0, 0, 0, 0
"BUSLVMAI82", 0.20785, 1,    127.636,   89.4,    1.0636, 2,    127.653,  -90.6,    1.0638, 0, 0, 0, 0
"BUSLVMAI83", 0.20785, 1,    128.695,  -30.6,    1.0725, 2,    128.714,  149.4,    1.0726, 0, 0, 0, 0
"BUSLVMAI84", 0.20785, 1,    127.864,   89.6,    1.0655, 2,    127.878,  -90.4,    1.0657, 0, 0, 0, 0
"BUSLVMAI85", 0.20785, 1,    129.103, -149.5,    1.0759, 2,    129.134,   30.5,    1.0761, 0, 0, 0, 0
"BUSLVMAI86", 0.20785, 1,    128.699,  -30.6,    1.0725, 2,    128.726,  149.4,    1.0727, 0, 0, 0, 0
"BUSLVMAI87", 0.20785, 1,    129.141,  -30.4,    1.0762, 2,     129.17,  149.6,    1.0764, 0, 0, 0, 0
"BUSLVMAI88", 0.20785, 1,    127.536,   89.4,    1.0628, 2,    127.549,  -90.6,    1.0629, 0, 0, 0, 0
"BUSLVMAI89", 0.20785, 1,    127.505,   89.4,    1.0625, 2,    127.518,  -90.6,    1.0626, 0, 0, 0, 0
"BUSLVMAI90", 0.20785, 1,    126.974,   89.2,    1.0581, 2,     126.99,  -90.8,    1.0582, 0, 0, 0, 0
"BUSLVMAI91", 0.20785, 1,     127.51,   89.4,    1.0626, 2,    127.526,  -90.7,    1.0627, 0, 0, 0, 0
"BUSLVMAI92", 0.20785, 1,    128.425,  -30.7,    1.0702, 2,    128.462,  149.3,    1.0705, 0, 0, 0, 0
"BUSLVMAI93", 0.20785, 1,     127.43,   89.4,    1.0619, 2,    127.446,  -90.6,    1.0621, 0, 0, 0, 0
"BUSLVMAI94", 0.20785, 1,    127.599,   89.5,    1.0633, 2,    127.614,  -90.6,    1.0634, 0, 0, 0, 0
"BUSLVMAI95", 0.20785, 1,    127.465,   89.4,    1.0622, 2,    127.481,  -90.6,    1.0623, 0, 0, 0, 0
"BUSLVMAI96", 0.20785, 1,    127.512,   89.3,    1.0626, 2,    127.526,  -90.7,    1.0627, 0, 0, 0, 0
"BUSLVMAI97", 0.20785, 1,    128.992, -149.6,    1.0749, 2,    129.008,   30.4,    1.0751, 0, 0, 0, 0
"BUSLVMAI98", 0.20785, 1,    128.992, -149.6,    1.0749, 2,    129.008,   30.4,    1.0751, 0, 0, 0, 0
"BUSLVMAI99", 0.20785, 1,    127.522,   89.3,    1.0627, 2,    127.536,  -90.7,    1.0628, 0, 0, 0, 0
"BUSLVMAI100", 0.20785, 1,    127.607,   89.4,    1.0634, 2,    127.621,  -90.6,    1.0635, 0, 0, 0, 0
"BUSLVMAI101", 0.20785, 1,    127.463,   89.4,    1.0622, 2,    127.479,  -90.6,    1.0623, 0, 0, 0, 0
"BUSLVMAI102", 0.20785, 1,    127.502,   89.4,    1.0625, 2,    127.518,  -90.6,    1.0626, 0, 0, 0, 0
"BUSLVMAI103", 0.20785, 1,    127.445,   89.4,     1.062, 2,    127.461,  -90.6,    1.0622, 0, 0, 0, 0
"BUSLVMAI104", 0.20785, 1,    127.421,   89.4,    1.0618, 2,    127.435,  -90.6,     1.062, 0, 0, 0, 0
"BUSLVMAI105", 0.20785, 1,    127.262,   89.3,    1.0605, 2,    127.276,  -90.7,    1.0606, 0, 0, 0, 0
"BUSLVMAI106", 0.20785, 1,    128.868,  -30.5,    1.0739, 2,    128.882,  149.4,     1.074, 0, 0, 0, 0
"BUSLVMAI107", 0.20785, 1,    127.508,   89.4,    1.0626, 2,    127.522,  -90.6,    1.0627, 0, 0, 0, 0
"BUSLVMAI108", 0.20785, 1,    127.473,   89.4,    1.0623, 2,    127.487,  -90.6,    1.0624, 0, 0, 0, 0
"BUSLVMAI109", 0.20785, 1,     128.76,  -30.5,     1.073, 2,    128.814,  149.5,    1.0734, 0, 0, 0, 0
"BUSLVMAI110", 0.20785, 1,     128.65,  -30.6,    1.0721, 2,    128.686,  149.4,    1.0724, 0, 0, 0, 0
"BUSLVMAI111", 0.20785, 1,    128.704,  -30.6,    1.0725, 2,     128.72,  149.4,    1.0727, 0, 0, 0, 0
"BUSLVMAI112", 0.20785, 1,    128.797,  -30.6,    1.0733, 2,    128.813,  149.4,    1.0734, 0, 0, 0, 0
"BUSLVMAI113", 0.20785, 1,    129.013, -149.6,    1.0751, 2,    129.028,   30.4,    1.0752, 0, 0, 0, 0
"BUSLVMAI114", 0.20785, 1,    127.274,  -30.9,    1.0606, 2,    127.289,  149.0,    1.0607, 0, 0, 0, 0
"BUSLVMAI115", 0.20785, 1,    128.705,  -30.6,    1.0725, 2,    128.718,  149.4,    1.0727, 0, 0, 0, 0
"BUSLVMAI116", 0.20785, 1,    127.453,   89.4,    1.0621, 2,    127.466,  -90.6,    1.0622, 0, 0, 0, 0
"BUSLVMAI117", 0.20785, 1,    128.692,  -30.5,    1.0724, 2,    128.713,  149.5,    1.0726, 0, 0, 0, 0
"BUSLVMAI118", 0.20785, 1,    129.355,  -30.3,     1.078, 2,    129.372,  149.7,    1.0781, 0, 0, 0, 0
"BUSLVMAI119", 0.20785, 1,    127.281,   89.3,    1.0607, 2,    127.294,  -90.7,    1.0608, 0, 0, 0, 0
"BUSLVMAI120", 0.20785, 1,    128.704,  -30.6,    1.0725, 2,    128.718,  149.4,    1.0727, 0, 0, 0, 0
"BUSLVMAI121", 0.20785, 1,    129.008, -149.6,    1.0751, 2,    129.024,   30.4,    1.0752, 0, 0, 0, 0
"BUSLVMAI122", 0.20785, 1,    127.443,   89.4,     1.062, 2,    127.459,  -90.6,    1.0622, 0, 0, 0, 0
"BUSLVMAI123", 0.20785, 1,    128.994, -149.6,    1.0749, 2,    129.008,   30.4,    1.0751, 0, 0, 0, 0
"BUSLVMAI124", 0.20785, 1,     127.35,   89.4,    1.0612, 2,    127.393,  -90.6,    1.0616, 0, 0, 0, 0
"BUSLVMAI125", 0.20785, 1,    126.628,   89.1,    1.0552, 2,    126.644,  -90.9,    1.0554, 0, 0, 0, 0
"BUSLVMAI126", 0.20785, 1,    129.004, -149.6,     1.075, 2,    129.018,   30.4,    1.0752, 0, 0, 0, 0
"BUSLVMAI127", 0.20785, 1,    127.448,   89.4,    1.0621, 2,    127.462,  -90.6,    1.0622, 0, 0, 0, 0
"BUSLVMAI128", 0.20785, 1,    129.571, -149.2,    1.0798, 2,    129.587,   30.8,    1.0799, 0, 0, 0, 0
"BUSLVMAI129", 0.20785, 1,    128.704,  -30.6,    1.0725, 2,    128.717,  149.4,    1.0726, 0, 0, 0, 0
"BUSLVMAI130", 0.20785, 1,    128.826,  -30.6,    1.0736, 2,    128.842,  149.4,    1.0737, 0, 0, 0, 0
"BUSLVMAI131", 0.20785, 1,    127.955,  -30.8,    1.0663, 2,    127.993,  149.2,    1.0666, 0, 0, 0, 0
"BUSLVMAI132", 0.20785, 1,    128.701,  -30.6,    1.0725, 2,    128.714,  149.4,    1.0726, 0, 0, 0, 0
"BUSLVMAI133", 0.20785, 1,    127.454,   89.4,    1.0621, 2,    127.472,  -90.6,    1.0623, 0, 0, 0, 0
"BUSLVMAI134", 0.20785, 1,    127.266,   89.3,    1.0606, 2,     127.28,  -90.7,    1.0607, 0, 0, 0, 0
"BUSLVMAI135", 0.20785, 1,     127.41,   89.4,    1.0618, 2,    127.426,  -90.6,    1.0619, 0, 0, 0, 0
"BUSLVMAI136", 0.20785, 1,    128.519,  -30.7,     1.071, 2,    128.545,  149.3,    1.0712, 0, 0, 0, 0
"BUSLVMAI137", 0.20785, 1,    129.182, -149.4,    1.0765, 2,    129.195,   30.6,    1.0766, 0, 0, 0, 0
"BUSLVMAI138", 0.20785, 1,    128.746, -149.7,    1.0729, 2,    128.767,   30.3,    1.0731, 0, 0, 0, 0
"BUSLVMAI139", 0.20785, 1,    128.078, -150.0,    1.0673, 2,    128.096,   30.0,    1.0675, 0, 0, 0, 0
"BUSLVMAI140", 0.20785, 1,    128.668,  -30.6,    1.0722, 2,    128.684,  149.4,    1.0724, 0, 0, 0, 0
"BUSLVMAI141", 0.20785, 1,    129.004, -149.6,     1.075, 2,    129.019,   30.4,    1.0752, 0, 0, 0, 0
"BUSLVMAI142", 0.20785, 1,    128.826, -149.7,    1.0735, 2,     128.84,   30.3,    1.0737, 0, 0, 0, 0
"BUSLVMAI143", 0.20785, 1,    128.863, -149.7,    1.0739, 2,    128.879,   30.3,     1.074, 0, 0, 0, 0
"BUSLVMAI144", 0.20785, 1,    127.446,   89.4,     1.062, 2,    127.461,  -90.6,    1.0622, 0, 0, 0, 0
"BUSLVMAI145", 0.20785, 1,    128.729,  -30.6,    1.0727, 2,    128.745,  149.4,    1.0729, 0, 0, 0, 0
"BUSLVMAI146", 0.20785, 1,    128.982, -149.6,    1.0748, 2,    128.996,   30.4,     1.075, 0, 0, 0, 0
"BUSLVMAI147", 0.20785, 1,    128.787,  -30.3,    1.0732, 2,    128.801,  149.7,    1.0733, 0, 0, 0, 0
"BUSLVMAI148", 0.20785, 1,    127.344,   89.4,    1.0612, 2,     127.36,  -90.6,    1.0613, 0, 0, 0, 0
"BUSLVMAI149", 0.20785, 1,    129.028, -149.5,    1.0752, 2,    129.041,   30.5,    1.0753, 0, 0, 0, 0
"BUSLVMAI150", 0.20785, 1,    127.888,  -30.9,    1.0657, 2,    127.911,  149.1,    1.0659, 0, 0, 0, 0
"BUSLVMAI151", 0.20785, 1,     128.61, -149.5,    1.0717, 2,    128.623,   30.5,    1.0719, 0, 0, 0, 0
"BUSLVMAI152", 0.20785, 1,    128.693,  -30.6,    1.0724, 2,    128.709,  149.4,    1.0726, 0, 0, 0, 0
"BUSLVMAI153", 0.20785, 1,    126.906,   89.2,    1.0575, 2,    126.922,  -90.8,    1.0577, 0, 0, 0, 0
"BUSLVMAI154", 0.20785, 1,    127.448,   89.4,    1.0621, 2,    127.464,  -90.6,    1.0622, 0, 0, 0, 0
"BUSLVMAI155", 0.20785, 1,      128.7,  -30.6,    1.0725, 2,    128.715,  149.4,    1.0726, 0, 0, 0, 0
"BUSLVMAI156", 0.20785, 1,    128.709,  -30.6,    1.0726, 2,    128.722,  149.4,    1.0727, 0, 0, 0, 0
"BUSLVMAI157", 0.20785, 1,    128.278,  -30.7,     1.069, 2,    128.294,  149.3,    1.0691, 0, 0, 0, 0
"BUSLVMAI158", 0.20785, 1,    128.928, -149.6,    1.0744, 2,    128.942,   30.4,    1.0745, 0, 0, 0, 0
"BUSLVMAI159", 0.20785, 1,    129.016, -149.6,    1.0751, 2,    129.029,   30.4,    1.0752, 0, 0, 0, 0
"BUSLVMAI160", 0.20785, 1,    128.621,  -30.5,    1.0718, 2,     128.64,  149.5,     1.072, 0, 0, 0, 0
"BUSLVMAI161", 0.20785, 1,    128.661,  -30.5,    1.0722, 2,    128.684,  149.4,    1.0724, 0, 0, 0, 0
"BUSLVMAI162", 0.20785, 1,    128.465,  -30.6,    1.0705, 2,    128.481,  149.3,    1.0707, 0, 0, 0, 0
"BUSLVMAI163", 0.20785, 1,    128.693,  -30.6,    1.0724, 2,    128.709,  149.4,    1.0726, 0, 0, 0, 0
"BUSLVMAI164", 0.20785, 1,    128.848,  -30.6,    1.0737, 2,    128.861,  149.4,    1.0738, 0, 0, 0, 0
"BUSLVMAI165", 0.20785, 1,     128.04,  -30.8,     1.067, 2,    128.077,  149.2,    1.0673, 0, 0, 0, 0
"BUSLVMAI166", 0.20785, 1,    128.525,  -30.7,     1.071, 2,    128.552,  149.3,    1.0713, 0, 0, 0, 0
"BUSLVMAI167", 0.20785, 1,    127.591,   89.5,    1.0633, 2,    127.627,  -90.5,    1.0636, 0, 0, 0, 0
"BUSLVMAI168", 0.20785, 1,    127.477,   89.4,    1.0623, 2,    127.491,  -90.6,    1.0624, 0, 0, 0, 0
"BUSLVMAI169", 0.20785, 1,    126.688,  -30.9,    1.0557, 2,    126.706,  149.1,    1.0559, 0, 0, 0, 0
"BUSLVMAI170", 0.20785, 1,    128.698,  -30.6,    1.0725, 2,    128.713,  149.4,    1.0726, 0, 0, 0, 0
"BUSLVMAI171", 0.20785, 1,    128.253,  -30.7,    1.0688, 2,    128.316,  149.3,    1.0693, 0, 0, 0, 0
"BUSLVMAI172", 0.20785, 1,    127.685,   89.6,     1.064, 2,    127.699,  -90.4,    1.0642, 0, 0, 0, 0
"BUSLVMAI173", 0.20785, 1,    127.442,   89.4,     1.062, 2,    127.458,  -90.6,    1.0621, 0, 0, 0, 0
"BUSLVMAI174", 0.20785, 1,    128.675,  -30.6,    1.0723, 2,    128.697,  149.4,    1.0725, 0, 0, 0, 0
"BUSLVMAI175", 0.20785, 1,    128.123,  -30.8,    1.0677, 2,    128.138,  149.2,    1.0678, 0, 0, 0, 0
"BUSLVMAI176", 0.20785, 1,    127.343,   89.3,    1.0612, 2,    127.356,  -90.7,    1.0613, 0, 0, 0, 0
"BUSLVMAI177", 0.20785, 1,    127.567,   89.5,    1.0631, 2,     127.58,  -90.5,    1.0632, 0, 0, 0, 0
"BUSLVMAI178", 0.20785, 1,    128.956, -149.6,    1.0746, 2,    128.969,   30.4,    1.0747, 0, 0, 0, 0
"BUSLVMAI179", 0.20785, 1,    128.838, -149.7,    1.0737, 2,    128.851,   30.3,    1.0738, 0, 0, 0, 0
"BUSLVMAI180", 0.20785, 1,    128.709,  -30.6,    1.0726, 2,    128.722,  149.4,    1.0727, 0, 0, 0, 0
"BUSLVMAI181", 0.20785, 1,    128.697,  -30.6,    1.0725, 2,    128.711,  149.4,    1.0726, 0, 0, 0, 0
"BUSLVMAI182", 0.20785, 1,    128.673,  -30.5,    1.0723, 2,    128.741,  149.5,    1.0728, 0, 0, 0, 0
"BUSLVMAI183", 0.20785, 1,    127.341,   89.3,    1.0612, 2,    127.355,  -90.7,    1.0613, 0, 0, 0, 0
"BUSLVMAI184", 0.20785, 1,    128.828,  -30.6,    1.0736, 2,    128.841,  149.4,    1.0737, 0, 0, 0, 0
"BUSLVMAI185", 0.20785, 1,    128.695, -149.6,    1.0725, 2,    128.709,   30.4,    1.0726, 0, 0, 0, 0
"BUSLVMAI186", 0.20785, 1,    127.451,   89.4,    1.0621, 2,    127.467,  -90.6,    1.0622, 0, 0, 0, 0
"BUSLVMAI187", 0.20785, 1,    127.563,   89.5,     1.063, 2,    127.577,  -90.5,    1.0631, 0, 0, 0, 0
"BUSLVMAI188", 0.20785, 1,    129.003, -149.6,     1.075, 2,    129.019,   30.4,    1.0752, 0, 0, 0, 0
"BUSLVMAI189", 0.20785, 1,    128.704,  -30.6,    1.0725, 2,     128.72,  149.4,    1.0727, 0, 0, 0, 0
"BUSLVMAI190", 0.20785, 1,    129.008, -149.6,    1.0751, 2,    129.024,   30.4,    1.0752, 0, 0, 0, 0
"BUSLVMAI191", 0.20785, 1,    127.448,   89.4,    1.0621, 2,    127.464,  -90.6,    1.0622, 0, 0, 0, 0
"BUSLVMAI192", 0.20785, 1,    128.687,  -30.6,    1.0724, 2,    128.703,  149.4,    1.0725, 0, 0, 0, 0
"BUSLVMAI193", 0.20785, 1,    128.699,  -30.6,    1.0725, 2,    128.715,  149.4,    1.0726, 0, 0, 0, 0
"BUSLVMAI194", 0.20785, 1,    127.403,   89.4,    1.0617, 2,    127.419,  -90.6,    1.0618, 0, 0, 0, 0
"BUSLVMAI195", 0.20785, 1,     127.45,   89.4,    1.0621, 2,    127.466,  -90.6,    1.0622, 0, 0, 0, 0
"BUSLVMAI196", 0.20785, 1,     129.01, -149.6,    1.0751, 2,    129.027,   30.4,    1.0752, 0, 0, 0, 0
"BUSLVMAI197", 0.20785, 1,    128.928, -149.6,    1.0744, 2,    128.942,   30.4,    1.0745, 0, 0, 0, 0
"BUSLVMAI198", 0.20785, 1,    129.014, -149.6,    1.0751, 2,     129.03,   30.4,    1.0752, 0, 0, 0, 0
"BUSLVMAI199", 0.20785, 1,    129.013, -149.6,    1.0751, 2,    129.029,   30.4,    1.0752, 0, 0, 0, 0
"BUSLVMAI200", 0.20785, 1,    128.688,  -30.6,    1.0724, 2,    128.704,  149.4,    1.0725, 0, 0, 0, 0
...
